Circuit: * C:\Users\Renan\Documents\GitHub\Shared-Scripts\Scripts\LTspice\Projetos\TDALevelSensor.asc

WARNING: Node N002 is floating.
WARNING: Node N003 is floating.
WARNING: Node NC_02 is floating.

WARNING: Less than two connections to node NC_01.  This node is used by T2.
WARNING: Less than two connections to node NC_02.  This node is used by T2.
.OP point found by inspection.
.step l=0.1
.step l=0.3
.step l=0.5
.step l=0.7
.step l=0.9

Date: Fri Jun 12 03:33:46 2020
Total elapsed time: 0.271 seconds.

tnom = 27
temp = 27
method = modified trap
totiter = 4846
traniter = 4846
tranpoints = 2424
accept = 2421
rejected = 3
matrix size = 19
fillins = 26
solver = Normal
Matrix Compiler1: 2.24 KB object code size  0.7/0.2/[0.2]
Matrix Compiler2: 1.90 KB object code size  0.1/0.2/[0.1]

